
**** 05/04/18 18:24:19 ********* PSpice 9.2 (Mar 2000) ******** ID# 0 ********

 ** Profile: "SCHEMATIC1-spaze7"  [ E:\AZ\7\paze7-SCHEMATIC1-spaze7.sim ] 


 ****     CIRCUIT DESCRIPTION


******************************************************************************




** Creating circuit file "paze7-SCHEMATIC1-spaze7.sim.cir" 
** WARNING: THIS AUTOMATICALLY GENERATED FILE MAY BE OVERWRITTEN BY SUBSEQUENT SIMULATIONS

*Libraries: 
* Local Libraries :
* From [PSPICE NETLIST] section of C:\Program Files\Orcad\PSpice\PSpice.ini file:
.lib "nom.lib" 

*Analysis directives: 
.AC DEC 1 0 5000k
----------$
ERROR -- Invalid value
.PROBE V(*) I(*) W(*) D(*) NOISE(*) 
.INC ".\paze7-SCHEMATIC1.net" 



**** INCLUDING paze7-SCHEMATIC1.net ****
* source PAZE7
R_R5         N00772 0  4.7k  
X_U1         N00582 N00689 N000032 N000033 N00704 AD741
V_V1         0 N000033 10Vdc
V_V3         N01305 0 DC 0Vdc AC 1Vac 
V_V2         N000032 0 10Vdc
R_R1         N00772 N00704  150k  
R_R2         N00582 N00772  3300mega  
R_R3         0 N00689  3300mega  
R_R4         0 N00704  10k  
C_C1         N00772 N00704  10n  
C_C2         N01305 N00689  1u  

**** RESUMING paze7-SCHEMATIC1-spaze7.sim.cir ****
.END
